Version 4
SHEET 1 880 680
WIRE -176 -528 -464 -528
WIRE -160 -528 -176 -528
WIRE -176 -512 -176 -528
WIRE -464 -432 -464 -528
WIRE -176 -400 -176 -432
WIRE -96 -400 -176 -400
WIRE -176 -352 -176 -400
WIRE -96 -320 -96 -400
WIRE -96 -320 -144 -320
WIRE -464 -304 -464 -352
WIRE -176 -256 -176 -288
WIRE 48 48 -240 48
WIRE 64 48 48 48
WIRE 48 64 48 48
WIRE -240 144 -240 48
WIRE 48 176 48 144
WIRE 128 176 48 176
WIRE 48 224 48 176
WIRE 128 256 128 176
WIRE 128 256 80 256
WIRE -240 272 -240 224
WIRE 48 320 48 288
FLAG 48 320 0
FLAG -240 272 0
FLAG -176 -256 0
FLAG -464 -304 0
SYMBOL TL431 64 288 R180
SYMATTR InstName U1
SYMBOL res 32 48 R0
SYMATTR InstName R1
SYMATTR Value 1K
SYMBOL voltage -240 128 R0
WINDOW 123 0 0 Left 0
WINDOW 39 0 0 Left 0
SYMATTR InstName V1
SYMATTR Value 10V
SYMBOL TL431 -160 -288 R180
SYMATTR InstName U2
SYMBOL res -192 -528 R0
SYMATTR InstName R2
SYMATTR Value 1K
SYMBOL voltage -464 -448 R0
WINDOW 123 0 0 Left 0
WINDOW 39 0 0 Left 0
SYMATTR InstName V2
SYMATTR Value 10V
TEXT -600 136 Left 2 !.tran 0.5
