Version 4
SHEET 1 1624 22896
WIRE -96 -64 -240 -64
WIRE 48 -64 -16 -64
WIRE 208 -64 48 -64
WIRE 320 -64 208 -64
WIRE 464 -64 320 -64
WIRE 48 -32 48 -64
WIRE 208 -32 208 -64
WIRE -240 16 -240 -64
WIRE 320 32 320 -64
WIRE 48 80 48 48
WIRE 96 80 48 80
WIRE 208 80 208 32
WIRE 208 80 176 80
WIRE 256 80 208 80
WIRE 464 112 464 -64
WIRE -240 144 -240 96
WIRE 48 144 48 80
WIRE 112 144 48 144
WIRE 112 160 112 144
WIRE 320 176 320 128
WIRE 416 176 320 176
WIRE 48 224 48 144
WIRE 320 224 320 176
WIRE 112 256 112 240
WIRE 112 256 80 256
WIRE -240 272 -240 224
WIRE 112 288 112 256
WIRE 48 384 48 288
WIRE 112 384 112 368
WIRE 112 384 48 384
WIRE 320 384 320 304
WIRE 320 384 112 384
WIRE 464 384 464 176
WIRE 464 384 320 384
WIRE 48 400 48 384
WIRE 80 752 -48 752
WIRE 80 768 80 752
WIRE 1568 768 1568 720
WIRE 80 864 80 848
WIRE 240 864 80 864
WIRE 80 896 80 864
WIRE 240 896 240 864
WIRE 1568 896 1568 848
WIRE -160 928 -208 928
WIRE -48 928 -48 752
WIRE -48 928 -96 928
WIRE -208 960 -208 928
WIRE 80 992 80 976
WIRE 240 992 240 960
WIRE 240 992 80 992
WIRE -48 1008 -48 928
WIRE -96 1024 -112 1024
WIRE 240 1024 240 992
WIRE 240 1024 80 1024
WIRE -112 1040 -112 1024
WIRE 80 1040 80 1024
WIRE 240 1040 240 1024
WIRE -224 1072 -240 1072
WIRE -96 1072 -144 1072
WIRE -240 1088 -240 1072
WIRE 80 1136 80 1104
WIRE 240 1136 240 1120
WIRE 240 1136 80 1136
WIRE 80 1168 80 1136
WIRE -48 1216 -48 1088
WIRE -144 1344 -192 1344
WIRE -48 1344 -48 1296
WIRE -48 1344 -80 1344
WIRE 16 1344 -48 1344
WIRE 48 1344 16 1344
WIRE 192 1344 128 1344
WIRE 352 1344 192 1344
WIRE 464 1344 352 1344
WIRE 608 1344 464 1344
WIRE 784 1344 608 1344
WIRE 848 1344 784 1344
WIRE 16 1376 16 1344
WIRE 192 1376 192 1344
WIRE 352 1376 352 1344
WIRE 464 1440 464 1344
WIRE -192 1472 -192 1344
WIRE 192 1488 192 1456
WIRE 240 1488 192 1488
WIRE 352 1488 352 1440
WIRE 352 1488 320 1488
WIRE 400 1488 352 1488
WIRE 608 1520 608 1344
WIRE 784 1536 784 1344
WIRE 848 1536 848 1344
WIRE 192 1552 192 1488
WIRE 256 1552 192 1552
WIRE 256 1568 256 1552
WIRE 464 1584 464 1536
WIRE 560 1584 464 1584
WIRE -192 1632 -192 1552
WIRE -192 1632 -352 1632
WIRE 192 1632 192 1552
WIRE 464 1632 464 1584
WIRE -352 1664 -352 1632
WIRE -192 1664 -192 1632
WIRE 256 1664 256 1648
WIRE 256 1664 224 1664
WIRE 256 1696 256 1664
WIRE -352 1760 -352 1728
WIRE -192 1760 -192 1744
WIRE -192 1760 -352 1760
WIRE -352 1792 -352 1760
WIRE -192 1792 -352 1792
WIRE 192 1792 192 1696
WIRE 256 1792 256 1776
WIRE 256 1792 192 1792
WIRE 464 1792 464 1712
WIRE 464 1792 256 1792
WIRE 608 1792 608 1584
WIRE 608 1792 464 1792
WIRE 784 1792 784 1600
WIRE 784 1792 608 1792
WIRE 848 1792 848 1616
WIRE 848 1792 784 1792
WIRE -352 1808 -352 1792
WIRE -192 1808 -192 1792
WIRE 192 1808 192 1792
WIRE -352 1904 -352 1888
WIRE -192 1904 -192 1872
WIRE -192 1904 -352 1904
WIRE -192 1936 -192 1904
FLAG -240 272 0
FLAG 48 400 0
FLAG 192 1808 0
FLAG 1568 896 0
FLAG -192 1936 0
FLAG 16 1440 0
FLAG -240 1088 0
FLAG -112 1040 0
FLAG -208 960 0
FLAG 80 1168 0
SYMBOL TL431 64 288 R180
SYMATTR InstName U1
SYMBOL voltage -240 128 R0
WINDOW 123 0 0 Left 0
WINDOW 39 0 0 Left 0
WINDOW 3 -60 98 Left 2
SYMATTR InstName V1
SYMATTR Value 5V
SYMBOL res 96 272 R0
SYMATTR InstName R1
SYMATTR Value 10k
SYMBOL res 96 144 R0
SYMATTR InstName R3
SYMATTR Value 10k
SYMBOL res 192 64 R90
WINDOW 0 0 56 VBottom 2
WINDOW 3 32 56 VTop 2
SYMATTR InstName R4
SYMATTR Value 1k
SYMBOL cap 192 -32 R0
SYMATTR InstName C1
SYMATTR Value 100nF
SYMBOL res 304 208 R0
SYMATTR InstName R5
SYMATTR Value 1k
SYMBOL res 32 -48 R0
SYMATTR InstName R6
SYMATTR Value 330
SYMBOL res 0 -80 R90
WINDOW 0 0 56 VBottom 2
WINDOW 3 32 56 VTop 2
SYMATTR InstName R7
SYMATTR Value 0.1
SYMBOL voltage -240 0 R0
WINDOW 123 0 0 Left 0
WINDOW 39 0 0 Left 0
WINDOW 3 -360 95 Left 2
SYMATTR InstName V3
SYMATTR Value PULSE(0 1 0.5 0.01 0.1 1 0 1)
SYMBOL SCR_AKG 448 112 R0
SYMATTR InstName U4
SYMATTR Value TS1220-600
SYMBOL pnp 256 128 M180
SYMATTR InstName Q1
SYMBOL TL431 208 1696 R180
SYMATTR InstName U2
SYMBOL res 240 1680 R0
SYMATTR InstName R2
SYMATTR Value 10k
SYMBOL res 240 1552 R0
SYMATTR InstName R8
SYMATTR Value 10k
SYMBOL res 336 1472 R90
WINDOW 0 0 56 VBottom 2
WINDOW 3 32 56 VTop 2
SYMATTR InstName R9
SYMATTR Value 1k
SYMBOL cap 336 1376 R0
SYMATTR InstName C2
SYMATTR Value 10n
SYMBOL res 448 1616 R0
SYMATTR InstName R10
SYMATTR Value 1k
SYMBOL res 176 1360 R0
SYMATTR InstName R11
SYMATTR Value 330
SYMBOL res 32 1360 R270
WINDOW 0 32 56 VTop 2
WINDOW 3 0 56 VBottom 2
SYMATTR InstName R12
SYMATTR Value 0.01
SYMBOL SCR_AKG 592 1520 R0
SYMATTR InstName U3
SYMATTR Value TS1220-600
SYMBOL pnp 400 1536 M180
SYMATTR InstName Q2
SYMBOL voltage 1568 752 R0
WINDOW 123 0 0 Left 0
WINDOW 39 0 0 Left 0
WINDOW 3 -60 98 Left 2
SYMATTR InstName V5
SYMATTR Value 5V
SYMBOL voltage 1568 624 R0
WINDOW 123 0 0 Left 0
WINDOW 39 0 0 Left 0
WINDOW 3 -360 95 Left 2
SYMATTR InstName V6
SYMATTR Value PULSE(0 1 0.5 0.01 0.1 1 0 1)
SYMBOL current -192 1744 R180
WINDOW 0 24 80 Left 2
WINDOW 3 24 0 Left 2
WINDOW 123 0 0 Left 0
WINDOW 39 0 0 Left 0
SYMATTR InstName I1
SYMATTR Value {Isource}
SYMBOL current -352 1808 R0
WINDOW 123 0 0 Left 0
WINDOW 39 0 0 Left 0
SYMATTR InstName I2
SYMATTR Value {Isink}
SYMBOL diode -368 1664 R0
SYMATTR InstName D1
SYMATTR Value ID
SYMBOL diode -176 1872 R180
WINDOW 0 24 64 Left 2
WINDOW 3 24 0 Left 2
SYMATTR InstName D2
SYMATTR Value ID
SYMBOL voltage -192 1456 R0
WINDOW 123 0 0 Left 0
WINDOW 39 0 0 Left 0
WINDOW 3 -60 98 Left 2
SYMATTR InstName V2
SYMATTR Value 5V
SYMBOL cap 0 1376 R0
SYMATTR InstName C3
SYMATTR Value 440µ
SYMBOL diode -144 1360 R270
WINDOW 0 32 32 VTop 2
WINDOW 3 0 32 VBottom 2
SYMATTR InstName D3
SYMATTR Value ID
SYMBOL sw -48 992 R0
SYMATTR InstName S1
SYMATTR Value ISW
SYMBOL voltage -128 1072 R90
WINDOW 123 0 0 Left 0
WINDOW 39 0 0 Left 0
WINDOW 0 -18 105 VRight 2
WINDOW 3 -54 49 VRight 2
SYMATTR InstName V8
SYMATTR Value PULSE(0 1 0.5 0.01 0.1 1 0 1)
SYMBOL res 832 1520 R0
SYMATTR InstName R13
SYMATTR Value 1.16
SYMBOL res -64 1200 R0
SYMATTR InstName R14
SYMATTR Value 0.1
SYMBOL cap -160 944 R270
WINDOW 0 32 32 VTop 2
WINDOW 3 0 32 VBottom 2
SYMATTR InstName C5
SYMATTR Value 5800µF
SYMATTR SpiceLine Rser=0.02
SYMBOL current 80 976 M180
WINDOW 0 24 80 Left 2
WINDOW 3 24 0 Left 2
WINDOW 123 0 0 Left 0
WINDOW 39 0 0 Left 0
SYMATTR InstName I3
SYMATTR Value {Isource}
SYMBOL current 240 1040 M0
WINDOW 123 0 0 Left 0
WINDOW 39 0 0 Left 0
SYMATTR InstName I4
SYMATTR Value {Isink}
SYMBOL diode 256 896 M0
SYMATTR InstName D4
SYMATTR Value ID
SYMBOL diode 64 1104 M180
WINDOW 0 24 64 Left 2
WINDOW 3 24 0 Left 2
SYMATTR InstName D5
SYMATTR Value ID
SYMBOL voltage 80 752 R0
WINDOW 123 0 0 Left 0
WINDOW 39 0 0 Left 0
WINDOW 3 -60 98 Left 2
SYMATTR InstName V4
SYMATTR Value 36V
SYMBOL cap 768 1536 R0
SYMATTR InstName C4
SYMATTR Value 500µF
TEXT -792 -48 Left 2 !.tran 0 1 0 20us startup uic
TEXT -3448 -216 Left 0 !*  File     : high-temperature_scr_pspice.LIB \n*  Revision : 7.0           \n*  Date     : 03/2023 \n*\n**********************************************************************\n*All ST products are sold pursuant to ST’s terms and conditions of sale.\n*Purchasers are solely responsible for the choice, selection and use of the ST products and services described herein, and ST assumes no\n*liability whatsoever relating to the choice, selection or use of the ST products and services described herein.\n*No license, express or implied, by estoppel or otherwise, to any intellectual property rights is granted under this document. If any part of this\n*document refers to any third party products or services it shall not be deemed a license grant by ST for the use of such third party products\n*or services, or any intellectual property contained therein or considered as a warranty covering the use in any manner whatsoever of such\n*third party products or services or any intellectual property contained therein.\n*UNLESS OTHERWISE SET FORTH IN ST’S TERMS AND CONDITIONS OF SALE ST DISCLAIMS ANY EXPRESS OR IMPLIED\n*WARRANTY WITH RESPECT TO THE USE AND/OR SALE OF ST PRODUCTS INCLUDING WITHOUT LIMITATION IMPLIED\n*WARRANTIES OF MERCHANTABILITY, FITNESS FOR A PARTICULAR PURPOSE (AND THEIR EQUIVALENTS UNDER THE LAWS\n*OF ANY JURISDICTION), OR INFRINGEMENT OF ANY PATENT, COPYRIGHT OR OTHER INTELLECTUAL PROPERTY RIGHT.\n*UNLESS EXPRESSLY APPROVED IN WRITING BY AN AUTHORIZED ST REPRESENTATIVE, ST PRODUCTS ARE NOT\n*RECOMMENDED, AUTHORIZED OR WARRANTED FOR USE IN MILITARY, AIR CRAFT, SPACE, LIFE SAVING, OR LIFE SUSTAINING\n*APPLICATIONS, NOR IN PRODUCTS OR SYSTEMS WHERE FAILURE OR MALFUNCTION MAY RESULT IN PERSONAL INJURY,\n*DEATH, OR SEVERE PROPERTY OR ENVIRONMENTAL DAMAGE. ST PRODUCTS WHICH ARE NOT SPECIFIED AS "AUTOMOTIVE\n*GRADE" MAY ONLY BE USED IN AUTOMOTIVE APPLICATIONS AT USER’S OWN RISK.\n*Resale of ST products with provisions different from the statements and/or technical features set forth in this document shall immediately void\n*any warranty granted by ST for the ST product or service described herein and shall not create or extend in any manner whatsoever, any\n*liability of ST.\n*ST and the ST logo are trademarks or registered trademarks of ST in various countries.\n*Information in this document supersedes and replaces all information previously supplied.\n*The ST logo is a registered trademark of STMicroelectronics. All other names are the property of their respective owners.\n*© 2008 STMicroelectronics - All rights reserved\n*STMicroelectronics group of companies\n*Australia - Belgium - Brazil - Canada - China - Czech Republic - Finland - France - Germany - Hong Kong - India - Israel - Italy - Japan -\n*Malaysia - Malta - Morocco - Singapore - Spain - Sweden - Switzerland - United Kingdom - United States of America\n*www.st.com                              \n**********************************************************************\n*               \n***********************************************************************\n*                                               Thyristor PSpice Models                       *\n***********************************************************************\n* Note :\n*\n*               This thyristor model simulates:\n*               -Igt MAX of the specification\n*   -Il  Typ of the specification\n*   -Ih  Typ of the specification\n*   -VDRM\n*   -VRRM\n*   -Power dissipation is realistic and correspond to a typical SCR\n*\n*   All these parameters are constant, and don't vary neither \n*   with temperature nor other parameters. \n*\n*   For a correct SCR behavior, the "Maximum step size" must be below \n*   or equal 20µs.\n*\n*\n*$\n.subckt SCR_ST A K G PARAMS:\n+ Vdrm=400v     \n+ Igt=20ma\n+ Ih=6ma        \n+ Rt=0.01\n*\n* Vdrm : Repetitive forward off-state voltage\n* Ih   : Holding current \n* Igt  : Gate trigger current \n* Rt   : Dynamic on-state resistance\n*\n*********************************\n* Power circuit *\n*********************************\n*\n****************************\n*Switch circuit*\n****************************\n* Q1 & Q2 Conduction\nS_S3         A Plip1 positive 0 Smain\n*RS_S3        positive 0 1G\nD_DAK1         Plip1 Plip2 Dak \nR_Rlip         Plip1 Plip2  1k\nV_Viak         Plip2 K DC 0 AC 0 \n*\n****************************\n*Gate circuit*\n****************************\nR_Rgk         G K  10G  \nD_DGKd        G Pg2 Dgk \nV_Vig         Pg2 K DC 0 AC 0 \nR_Rlig        G Pg2  1k  \n*\n****************************\n*Interface circuit*\n****************************\n* positive pilot\nR_Rp              Controlp positive  2.2  \nC_Cp              0 positive  1u \nE_IF15OR3         Controlp 0 VALUE {IF(  ( (V(CMDIG)>0.5) | (V(CMDILIH)>0.5) |\n+ (V(CMDVdrm)>0.5) ),400,0 )}\n* \n*\n*\n*\n*********************************\n* Pilots circuit *\n*********************************\n****************************\n* Pilot Gate     *\n****************************\nE_IF1IG         CMDIG 0 VALUE {IF((((I(V_Vig))>(Igt-1u)))& (((V(A)-V(K))>0)),1,0 )}\n*\n****************************\n* Pilot IHIL     *\n****************************\n*\nE_IF10IL         inIL 0 VALUE {IF( ((I(V_Viak))>(Ih/2)),1,0 )}\nE_IF5IH          inIH 0 VALUE {IF( ((I(V_Viak))>(Ih/3)),1,0 )} \n*\n* Flip_flop IHIL\nE_IF6DIHIL         SDIHIL 0 VALUE {IF(\n+ (V(inIL)*V(inIH)+V(inIH)*(1-V(inIL))*(V(CMDILIH)) )>0.5,1,0)}\nC_CIHIL            CMDILIH 0  1n  \nR_RIHIL            SDIHIL CMDILIH  1K  \nR_RIHIL2           CMDILIH 0  100Meg  \n*\n****************************\n* Pilot VDRM     *\n****************************\nE_IF8Vdrm           inVdrm 0 VALUE {IF( ((V(A)-V(K))>(Vdrm*1.3)),1,0 )}\nE_IF9IHVDRM         inIhVdrm 0 VALUE {IF( I(V_Viak)>(Vdrm*1.3)/1.2meg\n+ ,1,0)}\n* Flip_flop VDRM\nE_IF7DVDRM         SDVDRM 0 VALUE {IF(\n+ (V(inVdrm)+(1-V(inVdrm))*V(inIhVdrm)*V(CMDVdrm) )>0.5,1,0)}\nC_CVdrm            CMDVdrm 0  1n  \nR_RVdrm            SDVDRM CMDVdrm  100  \nR_RVdrm2           CMDVdrm 0  100Meg  \n*\n****************************\n* Switch Model *\n****************************\n.MODEL Smain VSWITCH Roff=1.2meg Ron={Rt} Voff=0 Von=100\n****************\n* Diodes Model *\n****************\n.MODEL  Dak D( Is=3E-12 Cjo=5pf) \n.MODEL  Dgk D( Is=1E-16 Cjo=50pf Rs=5 Bv=12V Ibv=100uA) \n.ends \n*\n*********************************************************************\n*                                                               SCR PSpice Library                  *\n*********************************************************************\n*********************************************************************\n*                                                               Standard SCRs definition                                            *\n*********************************************************************\n*\n*$\n.subckt X0115M A K G\nX1 A K G SCR_ST params:\n+ Vdrm=600v\n+ Igt=0.150ma\n+ Ih=5ma\n+ Rt=0.54\n* 2023 / ST / Rev 0\n.ends\n*$\n.subckt TXN825RG A K G\nX1 A K G SCR_ST params:\n+ Vdrm=600v\n+ Igt=40ma\n+ Ih=50ma\n+ Rt=0.014\n* 2021 / ST / Rev 0\n.ends\n*$\n.subckt X0115MUF A K G\nX1 A K G SCR_ST params:\n+ Vdrm=600v\n+ Igt=0.150ma\n+ Ih=5ma\n+ Rt=0.23\n* 2021 / ST / Rev 0\n.ends\n*$\n.subckt TN2540-12G A K G\nX1 A K G SCR_ST params:\n+ Vdrm=1200v\n+ Igt=40ma\n+ Ih=80ma\n+ Rt=0.014\n* 2021 / ST / Rev 0\n.ends\n*$\n.subckt TN4050-12WL A K G\nX1 A K G SCR_ST params:\n+ Vdrm=1200v\n+ Igt=50ma\n+ Ih=100ma\n+ Rt=0.0098\n* 2021 / ST / Rev 0\n.ends\n*$\n.subckt TN4050-12PI A K G\nX1 A K G SCR_ST params:\n+ Vdrm=1200v\n+ Igt=50ma\n+ Ih=100ma\n+ Rt=0.0098\n* 2021 / ST / Rev 0\n.ends\n*$\n.subckt TN6050-12WL A K G\nX1 A K G SCR_ST params:\n+ Vdrm=1200v\n+ Igt=50ma\n+ Ih=100ma\n+ Rt=0.0098\n* 2021 / ST / Rev 0\n.ends\n*$\n.subckt TN6050-12PI A K G\nX1 A K G SCR_ST params:\n+ Vdrm=1200v\n+ Igt=50ma\n+ Ih=100ma\n+ Rt=0.0071\n* 2021 / ST / Rev 0\n.ends\n*$\n.subckt TN815-800H A K G\nX1 A K G SCR_ST params:\n+ Vdrm=800v\n+ Igt=0.2ma\n+ Ih=5ma\n+ Rt=0.046\n* 2021 / ST / Rev 0\n.ends\n*$\n.subckt TN815-800B A K G\nX1 A K G SCR_ST params:\n+ Vdrm=800v\n+ Igt=0.2ma\n+ Ih=5ma\n+ Rt=0.046\n* 2021 / ST / Rev 0\n.ends\n*$\n.subckt TS110-8 A K G\nX1 A K G SCR_ST params:\n+ Vdrm=800v\n+ Igt=0.1ma\n+ Ih=12ma\n+ Rt=0.22\n* 2015 / ST / Rev 0\n.ends\n*$\n.subckt TS820-600FP A K G\nX1 A K G SCR_ST params:\n+ Vdrm=600v\n+ Igt=200ua\n+ Ih=5ma\n+ Rt=0.046\n* 2015 / ST / Rev 0\n.ends\n*$\n.subckt BTW68-800 A K G\nX1 A K G SCR_ST params:\n+ Vdrm=800v     \n+ Igt=50ma\n+ Ih=75ma        \n+ Rt=0.0085\n* 2008 / ST / Rev 0\n.ends\n*$\n.subckt BTW68-600 A K G\nX1 A K G SCR_ST params:\n+ Vdrm=600v     \n+ Igt=50ma\n+ Ih=75ma        \n+ Rt=0.0085\n* 2008 / ST / Rev 0\n.ends\n*$\n.subckt BTW68-1200 A K G\nX1 A K G SCR_ST params:\n+ Vdrm=1200v     \n+ Igt=50ma\n+ Ih=75ma        \n+ Rt=0.0085\n* 2010 / ST / Rev 0\n.ends\n*$\n.subckt BTW69-1200 A K G\nX1 A K G SCR_ST params:\n+ Vdrm=1200v     \n+ Igt=50ma\n+ Ih=100ma        \n+ Rt=0.0085\n* 2013 / ST / Rev 1\n.ends\n*$\n.subckt BTW69-800 A K G\nX1 A K G SCR_ST params:\n+ Vdrm=800v     \n+ Igt=80ma\n+ Ih=150ma        \n+ Rt=0.0085\n* 2008 / ST / Rev 0\n.ends\n*$\n.subckt BTW69-600 A K G\nX1 A K G SCR_ST params:\n+ Vdrm=600v     \n+ Igt=80ma\n+ Ih=150ma        \n+ Rt=0.0085\n* 2008 / ST / Rev 0\n.ends\n*$\n.subckt BTW67-1000 A K G\nX1 A K G SCR_ST params:\n+ Vdrm=1000v     \n+ Igt=80ma\n+ Ih=150ma        \n+ Rt=0.0085\n* 2010 / ST / Rev 0\n.ends\n*$\n.subckt BTW67-600 A K G\nX1 A K G SCR_ST params:\n+ Vdrm=600v     \n+ Igt=80ma\n+ Ih=150ma        \n+ Rt=0.0085\n* 2008 / ST / Rev 0\n.ends\n*$\n.subckt XL0840 A K G\nX1 A K G SCR_ST params:\n+ Vdrm=400v     \n+ Igt=0.2ma\n+ Ih=5ma        \n+ Rt=0.6\n* 2008 / ST / Rev 0\n.ends\n*$\n.subckt X0405N A K G\nX1 A K G SCR_ST params:\n+ Vdrm=800v     \n+ Igt=0.05ma\n+ Ih=5ma        \n+ Rt=0.1\n* 2008 / ST / Rev 0\n.ends\n*$\n.subckt X0405M A K G\nX1 A K G SCR_ST params:\n+ Vdrm=600v     \n+ Igt=0.05ma\n+ Ih=5ma        \n+ Rt=0.1\n* 2008 / ST / Rev 0\n.ends\n*$\n.subckt X0402N A K G\nX1 A K G SCR_ST params:\n+ Vdrm=800v     \n+ Igt=0.2ma\n+ Ih=5ma        \n+ Rt=0.1\n* 2008 / ST / Rev 0\n.ends\n*$\n.subckt X0402M A K G\nX1 A K G SCR_ST params:\n+ Vdrm=600v     \n+ Igt=0.2ma\n+ Ih=5ma        \n+ Rt=0.1\n* 2008 / ST / Rev 0\n.ends\n*$\n.subckt X0205N A K G\nX1 A K G SCR_ST params:\n+ Vdrm=800v     \n+ Igt=0.05ma\n+ Ih=5ma        \n+ Rt=0.2\n* 2008 / ST / Rev 0\n.ends\n*$\n.subckt X0205M A K G\nX1 A K G SCR_ST params:\n+ Vdrm=600v     \n+ Igt=0.05ma\n+ Ih=5ma        \n+ Rt=0.2\n* 2008 / ST / Rev 0\n.ends\n*$\n.subckt X0202M A K G\nX1 A K G SCR_ST params:\n+ Vdrm=600v     \n+ Igt=0.2ma\n+ Ih=5ma        \n+ Rt=0.2\n* 2008 / ST / Rev 0\n.ends\n*$\n.subckt X00602 A K G\nX1 A K G SCR_ST params:\n+ Vdrm=600v     \n+ Igt=0.2ma\n+ Ih=5ma        \n+ Rt=0.245\n* 2008 / ST / Rev 0\n.ends\n*$\n.subckt X00619 A K G\nX1 A K G SCR_ST params:\n+ Vdrm=600v     \n+ Igt=0.2ma\n+ Ih=5ma        \n+ Rt=0.245\n* 2010 / ST / Rev 0\n.ends\n*$\n.subckt TYN606 A K G\nX1 A K G SCR_ST params:\n+ Vdrm=600v     \n+ Igt=15ma\n+ Ih=30ma        \n+ Rt=0.06\n* 2008 / ST / Rev 0\n.ends\n*$\n.subckt TYN816 A K G\nX1 A K G SCR_ST params:\n+ Vdrm=800v     \n+ Igt=25ma\n+ Ih=40ma        \n+ Rt=0.023\n* 2008 / ST / Rev 0\n.ends\n*$\n.subckt TYN812T A K G\nX1 A K G SCR_ST params:\n+ Vdrm=800v     \n+ Igt=5ma\n+ Ih=15ma        \n+ Rt=0.03\n* 2008 / ST / Rev 0\n.ends\n*$\n.subckt TYN812 A K G\nX1 A K G SCR_ST params:\n+ Vdrm=800v     \n+ Igt=15ma\n+ Ih=30ma        \n+ Rt=0.03\n* 2008 / ST / Rev 0\n.ends\n*$\n.subckt TYN840 A K G\nX1 A K G SCR_ST params:\n+ Vdrm=800v     \n+ Igt=35ma\n+ Ih=75ma        \n+ Rt=0.01\n* 2008 / ST / Rev 0\n.ends\n*$\n.subckt TYN640 A K G\nX1 A K G SCR_ST params:\n+ Vdrm=600v     \n+ Igt=35ma\n+ Ih=75ma        \n+ Rt=0.01\n* 2008 / ST / Rev 0\n.ends\n*$\n.subckt TYN1225 A K G\nX1 A K G SCR_ST params:\n+ Vdrm=1200v     \n+ Igt=40ma\n+ Ih=50ma        \n+ Rt=0.014\n* 2012 / ST / Rev 0\n.ends\n*$\n.subckt TYN825 A K G\nX1 A K G SCR_ST params:\n+ Vdrm=800v     \n+ Igt=40ma\n+ Ih=50ma        \n+ Rt=0.014\n* 2008 / ST / Rev 0\n.ends\n*$\n.subckt TYN625 A K G\nX1 A K G SCR_ST params:\n+ Vdrm=600v     \n+ Igt=40ma\n+ Ih=50ma        \n+ Rt=0.014\n* 2008 / ST / Rev 0\n.ends\n*$\n.subckt TXN625 A K G\nX1 A K G SCR_ST params:\n+ Vdrm=600v     \n+ Igt=40ma\n+ Ih=50ma        \n+ Rt=0.014\n* 2011 / ST / Rev 0\n.ends\n*$\n.subckt TYN616 A K G\nX1 A K G SCR_ST params:\n+ Vdrm=600v     \n+ Igt=25ma\n+ Ih=40ma        \n+ Rt=0.023\n* 2008 / ST / Rev 0\n.ends\n*$\n.subckt TYN612T A K G\nX1 A K G SCR_ST params:\n+ Vdrm=600v     \n+ Igt=5ma\n+ Ih=15ma        \n+ Rt=0.03\n* 2008 / ST / Rev 0\n.ends\n*$\n.subckt TYN612 A K G\nX1 A K G SCR_ST params:\n+ Vdrm=600v     \n+ Igt=15ma\n+ Ih=30ma        \n+ Rt=0.03\n* 2008 / ST / Rev 0\n.ends\n*$\n.subckt TYN612M A K G\nX1 A K G SCR_ST params:\n+ Vdrm=600v     \n+ Igt=5ma\n+ Ih=20ma        \n+ Rt=0.03\n* 2008 / ST / Rev 0\n.ends\n*$\n.subckt TYN608 A K G\nX1 A K G SCR_ST params:\n+ Vdrm=600v     \n+ Igt=15ma\n+ Ih=30ma        \n+ Rt=0.046\n* 2008 / ST / Rev 0\n.ends\n*$\n.subckt TYN810 A K G\nX1 A K G SCR_ST params:\n+ Vdrm=800v     \n+ Igt=15ma\n+ Ih=30ma        \n+ Rt=0.035\n* 2008 / ST / Rev 0\n.ends\n*$\n.subckt TYN610 A K G\nX1 A K G SCR_ST params:\n+ Vdrm=600v     \n+ Igt=15ma\n+ Ih=30ma        \n+ Rt=0.035\n* 2008 / ST / Rev 0\n.ends\n*$\n.subckt TYN1012T A K G\nX1 A K G SCR_ST params:\n+ Vdrm=1000v     \n+ Igt=5ma\n+ Ih=15ma        \n+ Rt=0.03\n* 2008 / ST / Rev 0\n.ends\n*$\n.subckt TYN1012 A K G\nX1 A K G SCR_ST params:\n+ Vdrm=1000v     \n+ Igt=15ma\n+ Ih=30ma        \n+ Rt=0.03\n* 2008 / ST / Rev 0\n.ends\n*$\n.subckt TS420-600 A K G\nX1 A K G SCR_ST params:\n+ Vdrm=600v     \n+ Igt=0.2ma\n+ Ih=5ma        \n+ Rt=0.09\n* 2008 / ST / Rev 0\n.ends\n*$\n.subckt TS1220-600 A K G\nX1 A K G SCR_ST params:\n+ Vdrm=600v     \n+ Igt=0.2ma\n+ Ih=5ma        \n+ Rt=0.03\n* 2008 / ST / Rev 0\n.ends\n*$\n.subckt TN815-800B A K G\nX1 A K G SCR_ST params:\n+ Vdrm=800v     \n+ Igt=15ma\n+ Ih=40ma        \n+ Rt=0.046\n* 2008 / ST / Rev 0\n.ends\n*$\n.subckt TN815-600B A K G\nX1 A K G SCR_ST params:\n+ Vdrm=600v     \n+ Igt=15ma\n+ Ih=40ma        \n+ Rt=0.046\n* 2008 / ST / Rev 0\n.ends\n*$\n.subckt TN805-600B A K G\nX1 A K G SCR_ST params:\n+ Vdrm=600v     \n+ Igt=5ma\n+ Ih=25ma        \n+ Rt=0.046\n* 2008 / ST / Rev 0\n.ends\n*$\n.subckt TN2540-800G A K G\nX1 A K G SCR_ST params:\n+ Vdrm=800v     \n+ Igt=40ma\n+ Ih=50ma        \n+ Rt=0.014\n* 2008 / ST / Rev 0\n.ends\n*$\n.subckt TN2540-600G A K G\nX1 A K G SCR_ST params:\n+ Vdrm=600v     \n+ Igt=40ma\n+ Ih=50ma        \n+ Rt=0.014\n* 2008 / ST / Rev 0\n.ends\n*$\n.subckt TN1625-600G A K G\nX1 A K G SCR_ST params:\n+ Vdrm=600v     \n+ Igt=25ma\n+ Ih=40ma        \n+ Rt=0.023\n* 2008 / ST / Rev 0\n.ends\n*$\n.subckt TN1625-1000G A K G\nX1 A K G SCR_ST params:\n+ Vdrm=1000v     \n+ Igt=25ma\n+ Ih=40ma        \n+ Rt=0.023\n* 2008 / ST / Rev 0\n.ends\n*$\n.subckt TN1515-600B A K G\nX1 A K G SCR_ST params:\n+ Vdrm=600v     \n+ Igt=15ma\n+ Ih=40ma        \n+ Rt=0.025\n* 2008 / ST / Rev 0\n.ends\n*$\n.subckt TN1215-800H A K G\nX1 A K G SCR_ST params:\n+ Vdrm=800v     \n+ Igt=15ma\n+ Ih=40ma        \n+ Rt=0.03\n* 2008 / ST / Rev 0\n.ends\n*$\n.subckt TN1215-800G A K G\nX1 A K G SCR_ST params:\n+ Vdrm=800v     \n+ Igt=15ma\n+ Ih=30ma        \n+ Rt=0.03\n* 2008 / ST / Rev 0\n.ends\n*$\n.subckt TN1215-800B A K G\nX1 A K G SCR_ST params:\n+ Vdrm=800v     \n+ Igt=15ma\n+ Ih=40ma        \n+ Rt=0.03\n* 2008 / ST / Rev 0\n.ends\n*$\n.subckt TN1205T-600B A K G\nX1 A K G SCR_ST params:\n+ Vdrm=600v     \n+ Igt=5ma\n+ Ih=15ma        \n+ Rt=0.03\n* 2010 / ST / Rev 0\n.ends\n*$\n.subckt TN1215-600H A K G\nX1 A K G SCR_ST params:\n+ Vdrm=600v     \n+ Igt=15ma\n+ Ih=40ma        \n+ Rt=0.03\n* 2008 / ST / Rev 0\n.ends\n*$\n.subckt TN1215-600G A K G\nX1 A K G SCR_ST params:\n+ Vdrm=600v     \n+ Igt=15ma\n+ Ih=30ma        \n+ Rt=0.03\n* 2008 / ST / Rev 0\n.ends\n*$\n.subckt TN1215-600B A K G\nX1 A K G SCR_ST params:\n+ Vdrm=600v     \n+ Igt=15ma\n+ Ih=40ma        \n+ Rt=0.03\n* 2008 / ST / Rev 0\n.ends\n*$\n.subckt P0118M A K G\nX1 A K G SCR_ST params:\n+ Vdrm=600v     \n+ Igt=0.005ma\n+ Ih=5ma        \n+ Rt=0.6\n* 2008 / ST / Rev 0\n.ends\n*$\n.subckt P0118D A K G\nX1 A K G SCR_ST params:\n+ Vdrm=400v     \n+ Igt=0.005ma\n+ Ih=5ma        \n+ Rt=0.6\n* 2008 / ST / Rev 0\n.ends\n*$\n.subckt P0111M A K G\nX1 A K G SCR_ST params:\n+ Vdrm=600v     \n+ Igt=0.025ma\n+ Ih=5ma        \n+ Rt=0.6\n* 2008 / ST / Rev 0\n.ends\n*$\n.subckt P0111D A K G\nX1 A K G SCR_ST params:\n+ Vdrm=400v     \n+ Igt=0.025ma\n+ Ih=5ma        \n+ Rt=0.6\n* 2008 / ST / Rev 0\n.ends\n*$\n.subckt P0102M A K G\nX1 A K G SCR_ST params:\n+ Vdrm=600v     \n+ Igt=0.2ma\n+ Ih=5ma        \n+ Rt=0.6\n* 2008 / ST / Rev 0\n.ends\n*$\n.subckt P0102D A K G\nX1 A K G SCR_ST params:\n+ Vdrm=400v     \n+ Igt=0.2ma\n+ Ih=5ma        \n+ Rt=0.6\n* 2008 / ST / Rev 0\n.ends\n*$\n.subckt P0102BL A K G\nX1 A K G SCR_ST params:\n+ Vdrm=200v     \n+ Igt=0.2ma\n+ Ih=6ma        \n+ Rt=1\n* 2008 / ST / Rev 0\n.ends\n*$\n.subckt X0202N A K G\nX1 A K G SCR_ST params:\n+ Vdrm=800v     \n+ Igt=0.2ma\n+ Ih=5ma        \n+ Rt=0.2\n* 2008 / ST / Rev 1\n.ends\n*$\n.subckt TS110-7 A K G\nX1 A K G SCR_ST params:\n+ Vdrm=700v     \n+ Igt=0.1ma\n+ Ih=2ma        \n+ Rt=0.2\n* 2013 / ST / Rev 0\n.ends\n*$
TEXT -3432 -288 Left 2 ;Any spice models used in this cirucit are propery of there respective owners
TEXT -1056 1360 Left 2 !.param Isink 5000m\n.param Isource 5000m\n.model ID D(Ron=0 Roff=10Meg Vfwd=0)\n.model ISW SW(Ron=0.00001 Roff=10Meg Vt=0.5 Vh=0)
